%chk=2-HOOC-C6H3-TS.chk
%mem=500MW
%nproc=7
# rb3lyp/aug-cc-pVDZ opt=ts geom=connectivity freq=noraman

2-HOOC-C6H3

0 1
C          -1.38795        -1.47488        -1.04985
C           0.01795        -1.25909        -1.10282
C           0.32117         0.02711        -0.90478
C          -0.45211         1.17834        -0.66107
C          -1.82202         0.89205        -0.62230
C          -2.28051        -0.42363        -0.81546
H          -1.79255        -2.48089        -1.19408
H          -2.51430         1.71209        -0.43970
N           1.91703         0.24358        -0.96976
N           2.99983         0.02182        -1.07618
H          -3.35496        -0.61586        -0.77961
C          -0.00940         2.57961        -0.45246
O          -0.74994         3.51650        -0.24614
O           1.34358         2.73154        -0.51184
H           1.52288         3.67431        -0.36325


nprocshared=7
