%mem=400MW
%nproc=7
#p Temperature=298.15 opt=(maxcycles=1024) SCF=(maxcycles=1024) freq UB3LYP/aug-cc-pVDZ

2-HOOC-4-Br-Ph-N2+-UB3LYP-aug-cc-pVDZ-Triplet

1 3
C          -4.55940         0.25420        -0.75100
C          -4.67080        -0.84660         0.11850
C          -5.86610        -1.57770         0.27220
C          -6.96780        -1.19500        -0.47630
C          -6.87680        -0.10350        -1.35380
C          -5.68300         0.61380        -1.48630
H          -3.61480         0.79720        -0.80330
H          -7.89700        -1.74080        -0.37920
H          -5.62540         1.45880        -2.16010
N          -3.56480        -1.22640         0.84720
N          -2.60390        -1.48970         1.38160
Br         -8.40760         0.40980        -2.37430
C          -5.93240        -2.77020         1.24440
O          -5.06530        -3.24350         1.97760
O          -7.15660        -3.35550         1.25840
H          -7.17110        -4.10290         1.87830


nprocshared=7
