%mem=400MW
%nproc=7
#p Temperature=298.15 opt=(maxcycles=1024) SCF=(maxcycles=1024) freq UB3LYP/aug-cc-pVDZ

2-HOOC-Ph-N2+-UB3LYP-aug-cc-pVDZ-Triplet

1 3
C          -4.36160         0.17220        -0.67790
C          -4.47300        -0.92860         0.19160
C          -5.66830        -1.65970         0.34530
C          -6.77000        -1.27700        -0.40320
C          -6.67900        -0.18550        -1.28070
C          -5.48520         0.53180        -1.41320
H          -3.41700         0.71520        -0.73020
H          -7.69920        -1.82280        -0.30610
H          -7.54710         0.10560        -1.85940
H          -5.42760         1.37680        -2.08700
N          -3.36700        -1.30840         0.92030
N          -2.40610        -1.57170         1.45470
C          -5.73460        -2.85220         1.31750
O          -4.86750        -3.32550         2.05070
O          -6.95880        -3.43750         1.33150
H          -6.97330        -4.18490         1.95140


nprocshared=7
