%chk=x2-4-NO2-Ph-N2-OTs-v2-RB3LYP-6-31G_dp.chk
%nprocs=7
%mem=200MW
# opt=(maxcycles=1000,cartesian) freq freq rb3lyp/6-31G(d,p)

x2-4-NO2-Ph-N2-OTs-v2-RB3LYP-6-31G_dp

1 1
  C   -3.817235   -0.724054   -0.169016
  C   -4.482800   0.041012   0.805157
  C   -5.783176   -0.220936   1.274029
  C   -6.443085   -1.320990   0.740746
  C   -5.789942   -2.089470   -0.223800
  C   -4.505096   -1.812567   -0.685730
  H   -2.812845   -0.438392   -0.490701
  H   -6.247607   0.409949   2.022554
  H   -7.443909   -1.588266   1.054792
  H   -4.063192   -2.451611   -1.442885
  N   -3.813850   1.132513   1.334844
  N   -3.183180   1.964166   1.737471
  S   -0.306986   1.112868   0.259750
  O   -0.949873   1.124635   1.608811
  O   0.968742   0.287613   0.315299
  O   -1.211095   0.681284   -0.840442
  H   2.575232   -0.714395   1.425211
  C   3.478682   -1.233780   1.119858
  C   3.778428   -1.354065   -0.250325
  C   4.374261   -1.796752   2.020639
  C   4.918340   -2.007907   -0.747633
  C   5.508672   -2.444874   1.531345
  H   4.209404   -1.742881   3.087895
  C   5.799239   -2.560642   0.169483
  H   5.098994   -2.067094   -1.813820
  N   2.890481   -0.794708   -1.160055
  N   1.985615   -0.240255   -1.543661
  N   -6.510078   -3.265260   -0.788435
  O   -5.911335   -3.928169   -1.626703
  O   -7.639811   -3.474961   -0.365826
  C   0.192480   2.789816   -0.103698
  C   0.644916   3.609240   0.932423
  C   0.159782   3.254029   -1.421706
  C   1.070450   4.901424   0.639772
  H   0.647308   3.244552   1.954569
  C   0.588055   4.549237   -1.698099
  H   -0.215176   2.608026   -2.211621
  C   1.050003   5.393023   -0.676007
  H   1.417122   5.545159   1.443296
  H   0.558287   4.914561   -2.720958
  C   1.503868   6.803835   -0.975455
  H   2.500844   6.992909   -0.568659
  H   1.535881   7.000093   -2.051226
  H   0.825599   7.539096   -0.519910
  H   6.698794   -3.078702   -0.141746
  N   6.458262   -3.044469   2.506874
  O   6.173395   -2.926989   3.694214
  O   7.444990   -3.606934   2.044059


nprocshared=7

