%chk=Ph-N2-OTf-N2-Ph.chk
%nprocs=7
%mem=200MW
# opt freq rb3lyp/6-31G(d,p)

2-HOOC-4-Br-Ph-N2-OTf-RB3LYP-6-31G_dp

0 1
C          -4.55940         0.25420        -0.75100
C          -4.67080        -0.84660         0.11850
C          -5.86610        -1.57770         0.27220
C          -6.96780        -1.19500        -0.47630
C          -6.87680        -0.10350        -1.35380
C          -5.68300         0.61380        -1.48630
H          -3.61480         0.79720        -0.80330
H          -7.89700        -1.74080        -0.37920
H          -5.62540         1.45880        -2.16010
N          -3.56480        -1.22640         0.84720
N          -2.60390        -1.48970         1.38160
S           0.33320         0.85230        -0.17460
O           0.20610        -0.58010         0.62190
O           1.21900         0.75750        -1.49570
O          -1.04770         1.63870        -0.26440
C           1.41360         1.83860         1.08570
F           2.57410         1.11670         1.22200
F           0.76390         1.90350         2.26740
F           1.68260         3.06660         0.59970
Br         -8.40760         0.40980        -2.37430
C          -5.93240        -2.77020         1.24440
O          -5.06530        -3.24350         1.97760
O          -7.15660        -3.35550         1.25840
H          -7.17110        -4.10290         1.87830


nprocshared=7
