%chk=Ph-N2-OTf-N2-Ph.chk
%nprocs=7
%mem=200MW
# opt freq rb3lyp/6-31G(d,p)

4-NO2-Ph-N2-BF4-RB3LYP-6-31G_dp

0 1
C          -1.54120        -0.88700        -0.42720
C          -0.24690        -0.37810        -0.52200
C          -0.07690         0.97690        -0.21100
C          -1.11040         1.83920         0.19460
C          -2.38930         1.30550         0.29160
C          -2.57560        -0.04330        -0.02380
H          -1.74740        -1.93000        -0.65330
H           0.61820        -0.97450        -0.81100
H          -0.91250         2.88320         0.42890
H          -3.23460         1.91250         0.60440
N          -3.95310        -0.60290         0.07740
O          -4.10080        -1.78100        -0.21670
O          -4.83870         0.15940         0.44580
N           1.19640         1.55000        -0.31460
N           2.15240         2.10590        -0.40830
B           3.18060        -0.69360         0.19330
F           2.56070        -0.82900        -1.10630
F           3.89370        -1.82400         0.52720
F           3.97410         0.47890         0.16300
F           2.10010        -0.45950         1.12030


nprocshared=7
