%nprocs=7
%mem=200MW
# opt freq rb3lyp/6-31G(d,p)

BF4--RB3LYP-6-31G_dp

-1 1
B           5.12470         0.81190         1.53590
F           5.61130        -0.56470         1.53590
F           5.61140         1.50010         2.72800
F           5.61140         1.50010         0.34380
F           3.66470         0.81190         1.53590


nprocshared=7
