%nprocs=7
%mem=200MW
# opt freq rb3lyp/6-31G(d,p)

TfO--RB3LYP-6-31G_dp

-1 1
S           5.25960         0.86690         0.00300
C           6.90200         1.06160         0.66080
O           5.19620         1.51240        -1.53590
O           4.16840         1.66220         0.98560
O           4.87320        -0.75670        -0.05810
F           7.78380         0.41660        -0.13220
F           7.21530         2.37390         0.70790
F           6.95260         0.54190         1.90580


nprocshared=7
