%nprocs=7
%mem=200MW
# opt freq rb3lyp/6-31G(d,p)

TsO--RB3LYP-6-31G_dp

-1 1
C           4.72490         0.39470         0.01530
C           6.10090         0.52030         0.20800
C           6.92730         0.85870        -0.86340
C           6.37770         1.07060        -2.12840
C           5.00200         0.94450        -2.32110
C           4.17550         0.60690        -1.24910
H           4.07340         0.12820         0.86020
H           6.53360         0.35360         1.20510
H           7.02950         1.33730        -2.97300
H           4.56870         1.11130        -3.31800
S           2.41990         0.44640        -1.49530
O           1.62170         0.83390        -0.08050
O           2.05950        -1.12660        -1.92480
O           1.93140         1.48140        -2.71140
C           8.44610         0.99830        -0.65060
H           8.67870         2.01050        -0.39360
H           8.75650         0.34890         0.14120
H           8.95840         0.73220        -1.55150


nprocshared=7
