%chk=Ph-N2-OTf-N2-Ph.chk
%nprocs=7
%mem=200MW
# opt freq rb3lyp/6-31G(d,p)

x2-2-NO2-Ph-N2-OTf-v1-RB3LYP-6-311++G_dp

1 1
C           3.84470        -1.09563        -0.77047
C           3.93058         0.12732        -0.09306
C           5.05000         0.96083        -0.25147
C           6.08334         0.57692        -1.08049
C           6.01203        -0.64486        -1.76074
C           4.89895        -1.47180        -1.60555
H           2.96815        -1.73019        -0.62262
H           6.92653         1.24533        -1.18012
H           6.82686        -0.94188        -2.40828
H           4.83995        -2.41705        -2.12921
N           2.88727         0.46823         0.75136
N           1.88080         0.49436         1.26265
S           0.09106        -1.80265        -0.18368
O           0.41412        -0.19370        -0.28350
O          -1.04394        -2.27806        -1.19771
O           1.41413        -2.68544        -0.07980
C          -0.74132        -1.81136         1.56324
F          -1.85814        -1.02224         1.43759
F           0.12435        -1.25137         2.44325
F          -1.08514        -3.05853         1.93340
H          -2.72797        -1.48118        -0.99293
C          -3.65585        -0.91933        -0.87106
C          -3.59869         0.45056        -0.57563
C          -4.90325        -1.53004        -1.00328
C          -4.78447         1.19523        -0.40707
C          -6.07449        -0.79130        -0.83783
H          -4.94730        -2.58596        -1.23605
C          -6.00842         0.57514        -0.53692
H          -7.04104        -1.26783        -0.93968
H          -6.89418         1.17865        -0.39919
N          -2.35371         1.03916        -0.48138
N          -1.27829         1.37380        -0.43768
N          -4.74188         2.62533        -0.08977
O          -5.85420         3.23043         0.03100
O          -3.56583         3.12756         0.03676
N           5.12174         2.24125         0.44906
O           6.17559         2.93670         0.29860
O           4.08916         2.53837         1.15974


nprocshared=7
