%mem=300MW
%nproc=7
#p Temperature=298.15 opt freq rb3lyp/6-31G(d,p)

x2-2-HOOC-4-Br-Ph-N2-OTf-v1-RB3LYP-6-31G_dp

1  1
  C   3.885856   -0.633029   -0.530930
  C   4.258363   -0.090924   0.863596
  C   5.310081   0.495724   1.149160
  C   6.427492   0.659147   0.208810
  C   6.155908   -0.110233   -1.029037
  C   5.098323   -0.698168   -1.404343
  H   2.978332   -1.104088   -0.704187
  H   7.435469   1.060269   0.529900
  H   4.896599   -1.128968   -2.274310
  N   3.111414   -0.062995   1.587373
  N   2.092246   -0.094505   2.315881
  S   -0.003408   -1.168329   -0.107642
  O   0.117586   0.250941   0.622231
  O   -0.913957   -1.125838   -1.314017
  O   1.211150   -1.818805   -0.345825
  C   -0.910228   -2.169807   1.260853
  F   -2.181436   -1.464305   1.472277
  F   -0.248087   -2.087654   2.400579
  F   -1.128195   -3.333074   0.839888
  H   -3.043509   -1.072130   -1.156703
  C   -3.852284   -0.396889   -0.987749
  C   -3.654924   0.875250   -0.744432
  C   -5.217092   -0.967469   -0.794490
  C   -4.809930   1.751455   -0.473883
  C   -6.147454   -0.173931   -0.399570
  H   -5.367232   -2.000317   -0.999750
  C   -6.122986   1.164070   -0.344028
  H   -6.832650   1.842719   0.019807
  N   -2.551513   1.528467   -0.780260
  N   -1.325243   1.727784   -1.101475
  Br   -7.919332   -0.955674   -0.320874
  Br   7.641228   -0.048296   -2.138378
  C   5.472530   1.152764   2.476798
  O   4.619815   1.195981   3.287147
  O   6.755274   1.776701   2.814237
  H   6.722228   2.087972   3.587244
  C   -4.617572   3.281795   -0.165298
  O   -3.500902   3.747861   -0.245194
  O   -5.754415   3.982051   0.077906
  H   -5.480670   4.946947   0.288343

nprocshared=7
