%chk=Ph-N2-OTf-N2-Ph.chk
%nprocs=7
%mem=200MW
# opt freq rb3lyp/6-31G(d,p)

x2-2-NO2-Ph-N2-OTf-v2-RB3LYP-6-311++G_dp

1 1
C           3.92191        -1.12142        -0.67529
C           4.09281         0.15157        -0.11704
C           5.23691         0.91765        -0.40907
C           6.20473         0.41080        -1.25031
C           6.04633        -0.86265        -1.81232
C           4.91050        -1.61982        -1.52617
H           3.02361        -1.69283        -0.42221
H           7.06875         1.02740        -1.45318
H           6.81193        -1.25249        -2.47068
H           4.78253        -2.60382        -1.95810
N           3.10702         0.61044         0.73996
N           2.17842         0.79480         1.35239
S           0.12273        -1.56837         0.08667
O           0.28575         0.03604         0.32831
O          -0.74180        -1.92341        -1.22069
O           1.47996        -2.37736         0.30351
C          -1.02263        -2.06922         1.55776
F          -2.20435        -1.40114         1.34214
F          -0.45635        -1.65531         2.71044
F          -1.22829        -3.39929         1.55181
H          -1.49269         0.84510         0.29002
C          -2.48269         1.30214         0.27713
C          -3.53523         0.70044        -0.42883
C          -2.72573         2.49136         0.96502
C          -4.81589         1.28784        -0.43527
C          -3.99435         3.07077         0.95639
H          -1.91458         2.95723         1.50900
C          -5.03968         2.46156         0.25339
H          -4.17889         3.99236         1.49326
H          -6.03632         2.87805         0.22478
N          -3.27377        -0.46468        -1.12241
N          -2.86616        -1.39391        -1.61629
N           5.40754         2.25273         0.16248
O           6.47960         2.87837        -0.11423
O           4.43557         2.66394         0.89926
N          -5.93079         0.67231        -1.16437
O          -5.65513        -0.41851        -1.78260
O          -7.05455         1.26801        -1.11779


nprocshared=7
