%chk=Ph-N2-OTf-N2-Ph.chk
%nprocs=7
%mem=200MW
# opt freq rb3lyp/6-31G(d,p)

x2-3-NO2-Ph-N2-OTf-v1-RB3LYP-6-311++G_dp

1 1
C          -4.05433         0.73033        -0.60848
C          -4.15400        -0.40568         0.21811
C          -5.34193        -1.13759         0.35846
C          -6.43429        -0.70604        -0.36436
C          -6.37968         0.40980        -1.19774
C          -5.18678         1.12595        -1.31460
H          -3.10721         1.27165        -0.65370
H          -5.43525        -2.00774         0.99160
H          -7.27635         0.69030        -1.73266
H          -5.13690         1.99717        -1.95401
N          -3.03734        -0.81854         0.91690
N          -2.06721        -1.10089         1.42324
S          -0.08490         1.24548        -0.16054
O          -0.20871        -0.21846         0.58612
O           0.79054         1.18896        -1.49051
O          -1.47005         2.02660        -0.21437
C           1.00955         2.18033         1.12953
F           2.16942         1.44858         1.21378
F           0.37466         2.19042         2.31897
F           1.27252         3.42575         0.69128
H           2.64588         0.75226        -1.28420
C           3.61433         0.30063        -1.07248
C           3.69434        -0.76184        -0.14945
C           4.78780         0.72215        -1.68933
C           4.90533        -1.39650         0.16242
C           6.00618         0.10882        -1.38981
H           4.74991         1.53239        -2.40518
C           6.04153        -0.93650        -0.46971
H           4.98488        -2.21337         0.86462
H           6.93557         0.41513        -1.84939
N           2.54389        -1.21146         0.46106
N           1.56336        -1.52518         0.92896
N          -7.69445        -1.46080        -0.23913
O          -8.68192        -1.03063        -0.92346
O          -7.67231        -2.47319         0.54326
N           7.32638        -1.58583        -0.15269
O           8.35425        -1.13100        -0.75695
O           7.28290        -2.54133         0.69736


nprocshared=7
