%mem=300MW
%nproc=7
#p Temperature=298.15 opt freq rb3lyp/6-31G(d,p)

x2-3-NO2-Ph-N2-OTf-v2-RB3LYP-6-31G_dp

1  1
C          -4.17595         0.65885        -0.96156
C          -4.14700        -0.44353        -0.08970
C          -5.28000        -1.19658         0.26201
C          -6.47553        -0.79631        -0.30524
C          -6.56355         0.28904        -1.17877
C          -5.41003         1.00896        -1.50075
H          -3.26170         1.20516        -1.16711
H          -5.24482        -2.04483         0.93490
H          -7.53170         0.55188        -1.58912
H          -5.47282         1.85492        -2.17571
N          -2.94708        -0.86720         0.47317
N          -2.06407        -1.33410         0.96805
S          -0.08651         1.10781        -0.13102
O           0.19080        -0.31399         0.24053
O           0.68841         1.58897        -1.29449
O          -1.53174         1.43430        -0.12208
C           0.61407         2.07136         1.29692
F           1.95180         1.83793         1.35643
F           0.07036         1.68112         2.44931
F           0.42602         3.37787         1.13548
H           2.20472        -0.67446         0.10070
C           3.27715        -0.86433         0.02608
C           4.14757         0.08101        -0.55230
C           3.85426        -2.03939         0.49654
C           5.53472        -0.08930        -0.67893
C           5.23148        -2.25559         0.39189
H           3.22234        -2.79393         0.95116
C           6.04170        -1.28014        -0.19231
H           6.18725         0.65074        -1.12674
H           5.69346        -3.16682         0.75464
N           3.60782         1.26184        -1.03378
N           3.11907         2.18958        -1.40912
N          -7.70090        -1.56156         0.03657
O          -8.74580        -1.18412        -0.47540
O          -7.56275        -2.50812         0.80347
N           7.50389        -1.51463        -0.30199
O           7.92532        -2.57468         0.14021
O           8.16442        -0.62507        -0.82610


nprocshared=7
