%mem=300MW
%nproc=7
#p Temperature=298.15 opt freq rb3lyp/6-31G(d,p)

x2-4-Br-Ph-N2-OTf-v2-RB3LYP-6-31G_dp

1  1
C          -3.93401         0.05238        -0.15170
C          -3.68868        -0.68841         1.01871
C          -4.63347        -1.56145         1.59771
C          -5.85940        -1.69520         0.97340
C          -6.12403        -0.96723        -0.19868
C          -5.17251        -0.10108        -0.75466
H          -3.16907         0.72100        -0.53343
H          -4.40150        -2.11146         2.50272
H          -6.61145        -2.35747         1.38453
H          -5.40471         0.45181        -1.65684
N          -2.46971        -0.58952         1.65859
N          -1.51636        -0.59338         2.23855
S           0.00945         1.42035         0.03313
O           0.51563         0.21945         0.76087
O           0.61457         1.59957        -1.30405
O          -1.45929         1.59034         0.12520
C           0.68659         2.84264         1.02096
F           2.04306         2.80048         0.97320
F           0.31079         2.76172         2.29769
F           0.28997         4.01029         0.51693
H           2.50476         0.03143         0.08323
C           3.53265        -0.06642        -0.26758
C           4.14228         0.87206        -1.12456
C           4.30515        -1.14906         0.12558
C           5.47085         0.76136        -1.58506
C           5.62622        -1.28192        -0.32324
H           3.88051        -1.89564         0.78563
C           6.21141        -0.33137        -1.17622
H           5.89291         1.51279        -2.24275
H           7.23433        -0.45478        -1.50993
N           3.42304         1.96617        -1.54458
N           2.81162         2.83847        -1.87200
Br         -7.79517        -1.16368        -1.03719
Br          6.64211        -2.76548         0.22629


nprocshared=7
