%chk=Ph-N2-OTf-N2-Ph.chk
%nprocs=7
%mem=200MW
# opt freq rb3lyp/6-31G(d,p)

x2-4-NO2-Ph-N2-OTf-v1-RB3LYP-6-311++G_dp

1 1
C          -4.06184         0.32489         0.05211
C          -4.17536        -0.98974        -0.43361
C          -5.36826        -1.50402        -0.98069
C          -6.46916        -0.66730        -1.04748
C          -6.35610         0.63726        -0.57095
C          -5.18239         1.14229        -0.02565
H          -3.11619         0.64910         0.48895
H          -5.41796        -2.52283        -1.33956
H          -7.41483        -0.99208        -1.45549
H          -5.16748         2.16200         0.33041
N          -3.06804        -1.81502        -0.37414
N          -2.11770        -2.42392        -0.32395
S          -0.09467         0.11815         0.75731
O          -0.19080        -1.30376        -0.06976
O           0.76463         1.21993        -0.00760
O          -1.49380         0.55802         1.37373
C           0.99767        -0.43169         2.25326
F           2.17671        -0.86654         1.69838
F           0.38188        -1.44246         2.89914
F           1.22032         0.61912         3.06442
H           2.63229         0.88114        -0.21647
C           3.60923         0.48042        -0.48214
C           3.71728        -0.85501        -0.91235
C           4.76973         1.24070        -0.43009
C           4.94514        -1.43689        -1.28678
C           5.97995         0.66291        -0.79364
H           4.75824         2.27346        -0.11369
C           6.08845        -0.65874        -1.21936
H           4.98953        -2.46578        -1.61633
H           7.06184        -1.04135        -1.48823
N           2.57631        -1.62710        -0.98922
N           1.60737        -2.20955        -1.02443
N           7.20793         1.48384        -0.72986
O           7.06333         2.69000        -0.33424
O           8.29394         0.90519        -1.07699
N          -7.54164         1.51760        -0.64804
O          -7.39535         2.70543        -0.20119
O          -8.59652         1.00311        -1.15548


nprocshared=7
