%mem=300MW
%nproc=7
#p Temperature=298.15 opt freq rb3lyp/6-31G(d,p)

x2-4-HOOC-Ph-N2-OTf-v2-RB3LYP-6-31G_dp

1  1
C           4.07137         0.10291        -0.58496
C           3.78772         1.15766         0.29772
C           4.76714         2.01020         0.84542
C           6.08653         1.78444         0.48739
C           6.40376         0.73955        -0.39618
C           5.40390        -0.08825        -0.92435
H           3.27030        -0.53139        -0.94549
H           4.49128         2.81097         1.52222
H           6.87319         2.41293         0.88641
H           5.69181        -0.88605        -1.59973
N           2.47576         1.43199         0.66050
N           1.47468         1.78653         1.00108
S           0.04262        -1.03493        -0.03350
O          -0.51911         0.32297         0.23632
O          -0.58062        -1.72813        -1.18182
O           1.52168        -1.07605         0.03548
C          -0.51398        -2.03286         1.43413
F          -1.87039        -2.08227         1.43476
F          -0.11599        -1.46781         2.57548
F          -0.05083        -3.27926         1.37436
H          -2.55764         0.27172        -0.13430
C          -3.63031         0.24019        -0.32889
C          -4.26137        -0.91123        -0.83158
C          -4.44833         1.33805        -0.08452
C          -5.64171        -1.01188        -1.09451
C          -5.82579         1.27396        -0.33569
H          -4.01390         2.25058         0.30510
C          -6.41870         0.10371        -0.83845
H          -6.06857        -1.92998        -1.48198
H          -7.48770         0.09495        -1.01816
N          -3.48451        -2.02562        -1.08781
N          -2.81797        -2.89653        -1.28159
C           7.82145         0.45916        -0.81341
O           8.12290        -0.42937        -1.57624
O           8.69645         1.30645        -0.24376
H           9.58516         1.06475        -0.55798
C          -6.73769         2.44289        -0.08149
O          -7.92849         2.40779        -0.29055
O          -6.07783         3.51126         0.39730
H          -6.73050         4.21965         0.53568


nprocshared=7
