%chk=Ph-N2-OTf-N2-Ph.chk
%nprocs=7
%mem=200MW
# opt freq rb3lyp/6-31G(d,p)

x2-4-HOOC-Ph-N2-OTf-v1-RB3LYP-6-311++G_dp

1 1
C          -4.06869         0.28747         0.03914
C          -4.17640        -1.03789        -0.42017
C          -5.36752        -1.56670        -0.96021
C          -6.46704        -0.73272        -1.04553
C          -6.37646         0.59285        -0.59699
C          -5.19118         1.10095        -0.05763
H          -3.12522         0.62243         0.47152
H          -5.41019        -2.59320        -1.29797
H          -7.40894        -1.07771        -1.45217
H          -5.15917         2.12550         0.28449
N          -3.06816        -1.85500        -0.34058
N          -2.11177        -2.45330        -0.27262
S          -0.09899         0.15066         0.75719
O          -0.20521        -1.28262        -0.04180
O           0.76862         1.23579        -0.02251
O          -1.48886         0.61724         1.37638
C           0.99040        -0.38090         2.26002
F           2.16665        -0.83948         1.71931
F           0.36552        -1.37305         2.92855
F           1.22411         0.68252         3.05407
H           2.64757         0.85690        -0.23796
C           3.62082         0.44400        -0.49572
C           3.71631        -0.90413        -0.89009
C           4.78684         1.19786        -0.46773
C           4.94003        -1.50546        -1.25241
C           6.00664         0.61171        -0.81874
H           4.76212         2.23818        -0.17623
C           6.08564        -0.73231        -1.20849
H           4.97263        -2.54369        -1.55334
H           7.05354        -1.13894        -1.47177
N           2.57179        -1.66753        -0.94242
N           1.60033        -2.24688        -0.96080
C           7.28583         1.38087        -0.80046
O           8.37496         0.90726        -1.10150
O           7.07583         2.67279        -0.40570
H           7.93625         3.17524        -0.39855
C          -7.60809         1.42722        -0.72066
O          -8.66707         1.02207        -1.18505
O          -7.39294         2.69231        -0.24931
H          -8.22209         3.23807        -0.33571


nprocshared=7
