%mem=300MW
%nproc=7
#p Temperature=298.15 opt freq rb3lyp/6-31G(d,p)

x2-4-NO2-Ph-N2-OTs-v2-RB3LYP-6-31G_dp

1  1
  C   -3.867311   -0.687658   -0.199899
  C   -4.418694   -0.218826   0.931770
  C   -5.817904   -0.515558   1.384425
  C   -6.510198   -1.379783   0.916239
  C   -6.000874   -2.079787   -0.335620
  C   -4.798161   -1.850680   -0.874588
  H   -2.873505   -0.406021   -0.639005
  H   -6.149930   0.120103   2.288320
  H   -7.441970   -1.794361   1.184089
  H   -4.431687   -2.321200   -1.772997
  N   -3.645345   0.919261   1.568776
  N   -3.204251   1.533502   1.953635
  S   -0.295688   1.043367   0.316510
  O   -0.824772   0.947006   1.541696
  O   0.811391   0.091237   0.170048
  O   -1.358559   0.633819   -0.722106
  H   2.628000   -0.708636   1.366215
  C   3.615423   -1.170236   1.177000
  C   3.997653   -1.111746   -0.246259
  C   4.399893   -1.649363   1.954261
  C   5.133805   -1.834607   -0.828646
  C   5.683387   -2.292972   1.564659
  H   4.292695   -1.542602   2.961369
  C   5.864721   -2.255656   0.263060
  H   5.390569   -1.884077   -1.731751
  H   6.226527   -2.802593   2.255420
  N   2.958251   -0.718268   -1.300009
  N   2.223606   -0.286708   -1.849339
  N   -6.841130   -3.057976   -0.949905
  O   -6.239762   -3.636815   -1.945782
  O   -7.941699   -3.399951   -0.490189
  N   7.111340   -3.028911   -0.164733
  O   7.819558   -3.488232   0.574764
  O   7.398092   -2.976661   -1.519122
  C   0.230465   2.733278   -0.007580
  C   0.655103   3.409888   0.994748
  C   0.125635   3.236459   -1.432574
  C   1.042078   4.736871   0.666147
  H   0.720712   3.112006   2.017974
  C   0.396147   4.583734   -1.729866
  H   -0.273044   2.690245   -2.092288
  C   0.934045   5.303772   -0.679737
  H   1.337284   5.347687   1.578993
  H   0.482413   4.978475   -2.735420
  C   1.546111   6.690245   -0.857967
  H   2.545249   6.780893   -0.911882
  H   1.183198   7.179599   -1.783959
  H   1.085039   7.493346   -0.179564

nprocshared=7
