%chk=Ph-N2-OTf-N2-Ph.chk
%nprocs=7
%mem=200MW
# opt freq rb3lyp/6-31G(d,p)

x2-4-CH3O-Ph-N2-OTf-v1-RB3LYP-6-311++G_dp

1 1
C           4.05849        -0.21300        -0.18746
C           4.12425         1.18148        -0.39487
C           5.32712         1.81014        -0.80483
C           6.44229         1.03900        -1.00724
C           6.39681        -0.36510        -0.80734
C           5.19274        -0.97147        -0.39566
H           3.11736        -0.65677         0.14758
H           5.35764         2.88089        -0.95537
H           7.38028         1.47454        -1.32103
H           5.13959        -2.03835        -0.23282
N           3.00642         1.93196        -0.19683
N           2.02393         2.47185        -0.02374
S           0.11571        -0.45327         0.55592
O           0.20827         1.16477         0.34150
O          -0.78384        -1.19426        -0.53404
O           1.50703        -1.13528         0.92852
C          -0.92681        -0.53130         2.17802
F          -2.13501         0.05191         1.88246
F          -0.29913         0.16871         3.14789
F          -1.11048        -1.81829         2.54186
H          -2.62841        -0.67052        -0.57339
C          -3.61188        -0.20576        -0.64333
C          -3.73479         1.18508        -0.42876
C          -4.74180        -0.93620        -0.94758
C          -4.99375         1.83119        -0.52104
C          -6.00170        -0.31017        -1.03895
H          -4.64146        -1.99903        -1.11461
C          -6.10574         1.08719        -0.81962
H          -5.06927         2.89738        -0.35497
H          -7.08379         1.54040        -0.89667
N          -2.62858         1.91969        -0.14273
N          -1.66523         2.46940         0.09647
O          -7.15905        -0.93904        -1.32683
O           7.55441        -1.01823        -1.03539
C          -7.17548        -2.39736        -1.57528
H          -8.22044        -2.62337        -1.77653
H          -6.55809        -2.64526        -2.44326
H          -6.83182        -2.94041        -0.69043
C           7.63269        -2.48442        -0.85535
H           6.94530        -2.99191        -1.53799
H           8.66306        -2.73050        -1.10307
H           7.41521        -2.75530         0.18163


nprocshared=7
