%chk=Ph-N2-OTf-N2-Ph.chk
%nprocs=7
%mem=200MW
# opt freq rb3lyp/6-31G(d,p)

x2-4-NO2-Ph-N2-BF4-v1-RB3LYP-6-311++G_dp

1 1
C          -3.58642         0.34147         0.26206
C          -3.92533        -0.99077        -0.03559
C          -5.24917        -1.40178        -0.30193
C          -6.24865        -0.44486        -0.27180
C          -5.91162         0.87499         0.02000
C          -4.60943         1.27888         0.28581
H          -2.55256         0.58015         0.46893
H          -5.47371        -2.43578        -0.52537
H          -7.28271        -0.68792        -0.46722
H          -4.42098         2.31909         0.50769
N          -2.93477        -1.95363        -0.07926
N          -2.16395        -2.76671        -0.14099
H           2.43669         0.34430        -0.74382
C           3.46897         0.19312        -0.45218
C           3.90826        -1.08368        -0.05257
C           4.40338         1.21897        -0.45706
C           5.23493        -1.34879         0.34239
C           5.70945         0.95943        -0.06078
H           4.13957         2.22274        -0.75585
C           6.14101        -0.30228         0.33998
H           5.53407        -2.34355         0.64273
H           7.17113        -0.43260         0.63643
N           3.01955        -2.13770        -0.08275
N           2.29521        -2.99127        -0.13609
N           6.68748         2.06799        -0.06504
O           6.25082         3.20825        -0.44106
O           7.87501         1.77571         0.30788
N          -6.99038         1.88619         0.04836
O          -6.63647         3.08271         0.32146
O          -8.16938         1.46136        -0.20383
F           1.32581        -0.67295         1.05861
F           0.06723        -2.08315        -0.24944
F           0.57955         0.05703        -0.98516
F          -0.94957        -0.26931         0.74051
B           0.25545        -0.71554         0.15211


nprocshared=7
