%chk=Ph-N2-OTf-N2-Ph.chk
%nprocs=7
%mem=200MW
# opt freq rb3lyp/6-31G(d,p)

x2-Ph-N2-OTf-v1-RB3LYP-6-311++G_dp

1 1
C          -4.09622         0.27948        -0.70317
C          -4.20757        -0.82126         0.16633
C          -5.40288        -1.55236         0.32003
C          -6.50459        -1.16969        -0.42847
C          -6.41361        -0.07822        -1.30602
C          -5.21977         0.63914        -1.43851
H          -3.15162         0.82253        -0.75548
H          -5.44952        -2.38995         1.00288
H          -7.43383        -1.71546        -0.33141
H          -7.28170         0.21293        -1.88466
H          -5.16217         1.48405        -2.11232
N          -3.10155        -1.20114         0.89499
N          -2.14069        -1.46445         1.42943
S          -0.12999         0.82699        -0.22244
O          -0.25705        -0.60537         0.57410
O           0.75582         0.73221        -1.54348
O          -1.51088         1.61343        -0.31217
C           0.95039         1.81331         1.03790
F           2.11088         1.09143         1.17419
F           0.30067         1.87823         2.21958
F           1.21941         3.04133         0.55187
H           2.62046         0.28149        -1.29263
C           3.58695        -0.16156        -1.05920
C           3.66774        -1.17778        -0.08754
C           4.76129         0.22410        -1.69337
C           4.88462        -1.80199         0.25435
C           5.97911        -0.38096        -1.36298
H           4.72412         0.99964        -2.44727
C           6.04002        -1.39044        -0.39095
H           4.90742        -2.58109         1.00432
H           6.88701        -0.06816        -1.86396
H           6.98607        -1.85303        -0.14254
N           2.51844        -1.59227         0.54362
N           1.53797        -1.88163         1.02817


nprocshared=7
