%mem=300MW
%nproc=7
#p Temperature=298.15 opt freq rb3lyp/6-31G(d,p)

x2-Ph-N2-OTf-v2-RB3LYP-6-31G_dp

1  1
C          -3.93725        -0.59642        -1.07311
C          -4.01775        -0.89222         0.29808
C          -5.20231        -1.30111         0.94514
C          -6.34674        -1.41418         0.17219
C          -6.29805        -1.12995        -1.19952
C          -5.10745        -0.72690        -1.81222
H          -2.99855        -0.26049        -1.49914
H          -5.20684        -1.51625         2.00778
H          -7.27681        -1.72343         0.63566
H          -7.20130        -1.22192        -1.79410
H          -5.08893        -0.50534        -2.87352
N          -2.89023        -0.81482         1.10211
N          -2.06712        -0.83038         1.86574
S           0.02225         0.70297        -0.24877
O           0.30808        -0.24907         0.86526
O           1.03474         0.68359        -1.32466
O          -1.39933         0.69471        -0.66870
C           0.24447         2.37693         0.52965
F           1.52819         2.51478         0.92647
F          -0.54532         2.50588         1.60051
F          -0.03498         3.34627        -0.34045
H           2.19952        -0.95161         0.48035
C           3.20322        -1.32389         0.27579
C           4.17330        -0.50823        -0.33181
C           3.60191        -2.61427         0.60467
C           5.49389        -0.91220        -0.61299
C           4.90297        -3.05212         0.33569
H           2.88829        -3.28047         1.07652
C           5.84568        -2.20668        -0.26775
H           6.19516        -0.23211        -1.08309
H           5.19139        -4.06447         0.60027
H           6.85109        -2.55995        -0.46691
N           3.81764         0.77588        -0.68580
N           3.52207         1.80355        -0.98780


nprocshared=7
