%chk=x2-2-HOOC-4-Br-Ph-N2-OTf-v1_RB3LYP-aug-cc-pVDZ-Opt.chk
%mem=500MW
%nproc=7
#p opt=(maxcycles=777) freq rb3lyp/aug-cc-pVDZ pop=(Bonding,AllOrbitals,mk,no,nboread)

x2-2-HOOC-4-Br-Ph-N2-OTf-v1_RB3LYP-aug-cc-pVDZ

1 1
C           3.96790        -0.54740        -0.59240
C           4.16350        -0.21020         0.75540
C           5.37730         0.32500         1.25090
C           6.40620         0.52290         0.34150
C           6.22720         0.19360        -1.01190
C           5.02060        -0.33880        -1.47550
H           3.01210        -0.96830        -0.90440
H           7.34750         0.93240         0.68550
H           4.90140        -0.59240        -2.52220
N           3.09730        -0.43780         1.61040
N           2.17090        -0.64980         2.19090
S          -0.00590        -1.13480        -0.25810
O           0.17930         0.05320         0.62580
O          -0.94700        -0.89680        -1.38010
O           1.25700        -1.82740        -0.60310
C          -0.90090        -2.35500         0.82360
F          -2.09390        -1.83830         1.18660
F          -0.19450        -2.60630         1.93190
F          -1.11860        -3.49900         0.17450
H          -2.98010        -0.83440        -1.23780
C          -3.85990        -0.27600        -0.92750
C          -3.71650         1.06050        -0.52490
C          -5.13300        -0.83180        -0.90140
C          -4.80440         1.86010        -0.09830
C          -6.22270        -0.06410        -0.47990
H          -5.27590        -1.86160        -1.20630
C          -6.06100         1.27260        -0.08060
H          -6.91490         1.85410         0.24270
N          -2.43620         1.58780        -0.57310
N          -1.36890         1.89360        -0.64910
Br         -7.94060        -0.82780        -0.44280
Br          7.64360         0.47630        -2.21700
C           5.51550         0.65710         2.70300
O           4.61440         0.49440         3.49840
O           6.72420         1.14170         3.00480
H           6.74220         1.33120         3.95950
C          -4.57750         3.28090         0.31090
O          -3.48150         3.80030         0.28500
O          -5.70350         3.88920         0.69580
H          -5.48200         4.80380         0.94430

$nbo bndidx $end

nprocshared=7
