%chk=x2-3-NO2-Ph-N2-OTf-v1_RB3LYP-aug-cc-pVDZ-Opt.chk
%mem=500MW
%nproc=7
#p opt=(maxcycles=777) freq rb3lyp/aug-cc-pVDZ pop=(Bonding,AllOrbitals,mk,no,nboread)

x2-3-NO2-Ph-N2-OTf-v1_RB3LYP-aug-cc-pVDZ

1 1
C          -4.10380         0.40400        -1.13130
C          -4.32480        -0.16000         0.13800
C          -5.56490        -0.64900         0.57960
C          -6.60670        -0.55630        -0.32470
C          -6.44730        -0.00690        -1.59860
C          -5.19460         0.47110        -1.99250
H          -3.11400         0.77330        -1.38500
H          -5.72020        -1.07930         1.56170
H          -7.30640         0.03820        -2.25810
H          -5.06660         0.90200        -2.97900
N          -3.26750        -0.25450         1.03200
N          -2.44990        -0.36910         1.78030
S          -0.05920         0.69480        -0.20960
O          -0.22440        -0.59430         0.52980
O           0.96990         0.63200        -1.27210
O          -1.34290         1.33870        -0.56430
C           0.68940         1.82480         1.06170
F           1.89260         1.32640         1.42710
F          -0.08880         1.89580         2.14480
F           0.87430         3.04770         0.56800
H           2.96800         1.02680        -1.25040
C           3.93290         0.59860        -0.99680
C           3.98780        -0.66980        -0.39270
C           5.14470         1.23590        -1.24290
C           5.17910        -1.31940        -0.03050
C           6.35530         0.63040        -0.89590
H           5.14490         2.21460        -1.70900
C           6.34820        -0.63140        -0.29790
H           5.20650        -2.29820         0.43300
H           7.30730         1.11530        -1.07960
N           2.81010        -1.35630        -0.12810
N           1.91870        -1.97670         0.12220
N          -7.93870        -1.06330         0.09020
O          -8.84300        -0.96750        -0.72830
O          -8.02010        -1.53600         1.21830
N           7.63530        -1.27350         0.06890
O           8.65460        -0.64490        -0.18120
O           7.56800        -2.38030         0.59160

$nbo bndidx $end

nprocshared=7
