%chk=x2-3-NO2-Ph-N2-OTf-v2_RB3LYP-aug-cc-pVDZ-Opt.chk
%mem=500MW
%nproc=7
#p opt=(maxcycles=777) freq rb3lyp/aug-cc-pVDZ pop=(Bonding,AllOrbitals,mk,no,nboread)

x2-3-NO2-Ph-N2-OTf-v2_RB3LYP-aug-cc-pVDZ

1 1
C           3.77170        -0.42970         1.32910
C           3.97830        -0.51980        -0.05830
C           5.20910        -0.84950        -0.65000
C           6.25450        -1.09360         0.22140
C           6.10700        -1.02000         1.60800
C           4.86360        -0.68800         2.15200
H           2.79450        -0.14600         1.70470
H           5.35540        -0.91510        -1.72140
H           6.96740        -1.22150         2.23570
H           4.74450        -0.62510         3.22760
N           2.92480        -0.28750        -0.93450
N           2.15790        -0.14560        -1.73200
S          -0.09740         1.01220         0.33980
O          -0.22420         0.08920        -0.83000
O          -1.30740         1.05380         1.18890
O           1.20360         0.89860         1.03660
C          -0.03290         2.69930        -0.43950
F          -1.20690         2.95250        -1.05390
F           0.94420         2.74600        -1.35480
F           0.17930         3.64140         0.47620
H          -2.27330        -0.39490        -0.72870
C          -3.30020        -0.71150        -0.55060
C          -4.24760         0.16040         0.01860
C          -3.73880        -1.99560        -0.85820
C          -5.58200        -0.18260         0.28930
C          -5.05610        -2.38620        -0.60330
H          -3.04170        -2.69950        -1.29820
C          -5.94910        -1.47510        -0.03560
H          -6.29660         0.50390         0.72740
H          -5.40870        -3.38460        -0.83590
N          -3.86240         1.45400         0.32620
N          -3.55920         2.49540         0.56720
N           7.57610        -1.44590        -0.35520
O           8.48430        -1.65400         0.43760
O           7.64610        -1.49950        -1.57790
N          -7.34750        -1.89370         0.23340
O          -7.64270        -3.04400        -0.06060
O          -8.08790        -1.05100         0.72700

$nbo bndidx $end

nprocshared=7
