%chk=x2-4-HOOC-Ph-N2-OTf-v2_RB3LYP-aug-cc-pVDZ-Opt.chk
%mem=500MW
%nproc=7
#p opt=(maxcycles=777) freq rb3lyp/aug-cc-pVDZ pop=(Bonding,AllOrbitals,mk,no,nboread)

x2-4-HOOC-Ph-N2-OTf-v2_RB3LYP-aug-cc-pVDZ

1 1
C           4.08630         0.04370        -0.35100
C           4.05580         0.73190         0.87290
C           5.16620         1.38910         1.43760
C           6.35730         1.35230         0.73050
C           6.42260         0.67500        -0.49870
C           5.29790         0.02850        -1.02890
H           3.19100        -0.45670        -0.70720
H           5.08380         1.90400         2.38800
H           7.23860         1.84390         1.12370
H           5.39270        -0.48640        -1.97820
N           2.87080         0.78800         1.59060
N           1.94700         0.88760         2.20760
S           0.01880        -0.71150         0.07930
O          -0.09910         0.61200         0.74210
O          -0.82840        -0.86200        -1.13250
O           1.40830        -1.20910        -0.04020
C          -0.77550        -1.89310         1.27580
F          -2.08370        -1.57270         1.42000
F          -0.19110        -1.83800         2.47300
F          -0.71600        -3.14830         0.81290
H          -2.51320         0.51810        -0.89710
C          -3.58980         0.40770        -0.81650
C          -4.17690        -0.85540        -1.00870
C          -4.44940         1.45810        -0.52030
C          -5.56020        -1.10980        -0.92080
C          -5.83110         1.24000        -0.42450
H          -4.04740         2.45100        -0.36000
C          -6.38180        -0.03710        -0.62380
H          -5.95510        -2.10680        -1.07890
H          -7.45550        -0.16140        -0.54010
N          -3.35460        -1.92380        -1.30800
N          -2.68940        -2.78280        -1.54670
C           7.69470         0.61000        -1.29850
O           7.77960         0.03970        -2.36140
O           8.70890         1.25480        -0.69530
H           9.49150         1.16920        -1.26710
C          -6.79280         2.35210        -0.10470
O          -7.98730         2.18430        -0.01550
O          -6.17130         3.53070         0.06540
H          -6.85280         4.19540         0.26740

$nbo bndidx $end

nprocshared=7
