%chk=x2-4-Br-Ph-N2-OTf-v1_RB3LYP-aug-cc-pVDZ-Opt.chk
%mem=500MW
%nproc=7
#p opt=(maxcycles=777) freq rb3lyp/aug-cc-pVDZ pop=(Bonding,AllOrbitals,mk,no,nboread)

x2-4-Br-Ph-N2-OTf-v1_RB3LYP-aug-cc-pVDZ

1 1
C          -4.13780        -0.28390        -0.17240
C          -4.37690         1.03930         0.24230
C          -5.65260         1.52490         0.59850
C          -6.71770         0.64560         0.54080
C          -6.50100        -0.68190         0.13280
C          -5.22510        -1.14190        -0.22220
H          -3.13150        -0.58290        -0.45220
H          -5.78900         2.55440         0.91000
H          -7.71410         0.97670         0.80740
H          -5.08790        -2.16880        -0.53900
N          -3.32450         1.92580         0.31620
N          -2.50580         2.67860         0.41030
S          -0.07710         0.51140        -0.28950
O          -0.28740         1.41350         0.88090
O           0.84750        -0.61180        -0.01180
O          -1.32430         0.17530        -1.01200
C           0.87520         1.56930        -1.48500
F           2.05990         1.90480        -0.92040
F           0.20940         2.69150        -1.76640
F           1.12580         0.90980        -2.61640
H           2.85460        -0.81040        -0.27940
C           3.82090        -0.59710         0.16720
C           3.89100         0.21300         1.31500
C           5.01250        -1.09570        -0.33480
C           5.10060         0.53400         1.96700
C           6.22600        -0.78620         0.29520
H           5.00500        -1.72550        -1.21620
C           6.27350         0.02520         1.44170
H           5.10620         1.16260         2.85040
H           7.22390         0.24960         1.91050
N           2.73620         0.73240         1.85980
N           1.85800         1.19740         2.36940
Br          7.83080        -1.47110        -0.40550
Br         -7.96090        -1.86420         0.06000

$nbo bndidx $end

nprocshared=7
