%chk=x2-4-CH3O-Ph-N2-OTf-v1_RB3LYP-aug-cc-pVDZ-Opt.chk
%mem=500MW
%nproc=7
#p opt=(maxcycles=777) freq rb3lyp/aug-cc-pVDZ pop=(Bonding,AllOrbitals,mk,no,nboread)

x2-4-CH3O-Ph-N2-OTf-v1_RB3LYP-aug-cc-pVDZ

1 1
C          -4.18330         0.53620        -0.04530
C          -4.37430        -0.85930        -0.10100
C          -5.64970        -1.45190        -0.27780
C          -6.73630        -0.62330        -0.40560
C          -6.57350         0.78560        -0.35540
C          -5.29190         1.35110        -0.17340
H          -3.18170         0.92610         0.11590
H          -5.75650        -2.53020        -0.31340
H          -7.73410        -1.02240        -0.54490
H          -5.16030         2.42430        -0.12740
N          -3.29590        -1.68960         0.01910
N          -2.43470        -2.39890         0.09860
S          -0.09130        -0.00200         0.25430
O          -0.32830        -1.08100        -0.74650
O           0.91430         0.99900        -0.17140
O          -1.32820         0.52970         0.86960
C           0.75360        -0.89470         1.64870
F           1.91620        -1.42190         1.19950
F          -0.00970        -1.89230         2.10890
F           1.03720        -0.06380         2.65450
H           2.93240         1.03360         0.09550
C           3.89210         0.69670        -0.28480
C           3.92250        -0.27250        -1.30740
C           5.09510         1.18770         0.18470
C           5.13240        -0.75510        -1.86750
C           6.31420         0.71920        -0.35330
H           5.08560         1.93400         0.96850
C           6.31580        -0.25620        -1.38390
H           5.11600        -1.50060        -2.65450
H           7.26900        -0.59240        -1.77460
N           2.75390        -0.78220        -1.80050
N           1.84470        -1.25150        -2.25390
O           7.51800         1.12900         0.03570
O          -7.69600         1.48630        -0.48830
C           7.64550         2.11490         1.07540
H           8.71650         2.26410         1.19900
H           7.17210         3.05490         0.77690
H           7.21150         1.74900         2.01050
C          -7.66080         2.92380        -0.45130
H          -7.04840         3.31650        -1.26830
H          -8.69450         3.23900        -0.58040
H          -7.28310         3.27700         0.51270

$nbo bndidx $end

nprocshared=7
