%chk=x2-4-CH3O-Ph-N2-OTf-v2_RB3LYP-aug-cc-pVDZ-Opt.chk
%mem=500MW
%nproc=7
#p opt=(maxcycles=777) freq rb3lyp/aug-cc-pVDZ pop=(Bonding,AllOrbitals,mk,no,nboread)

x2-4-CH3O-Ph-N2-OTf-v2_RB3LYP-aug-cc-pVDZ

1 1
C          -3.98000        -0.40920        -0.41650
C          -3.90590        -0.71200         0.95780
C          -4.99480        -1.26290         1.67930
C          -6.16230        -1.51130         1.00190
C          -6.26440        -1.21640        -0.38240
C          -5.16560        -0.66580        -1.07840
H          -3.11810         0.03590        -0.90490
H          -4.90080        -1.48120         2.73710
H          -7.02520        -1.93200         1.50460
H          -5.23740        -0.43190        -2.13250
N          -2.74730        -0.47530         1.64430
N          -1.82500        -0.31940         2.25850
S          -0.04580         1.00780        -0.22960
O           0.26420        -0.13380         0.67890
O           0.87050         1.10880        -1.38790
O          -1.48990         1.17620        -0.51150
C           0.37890         2.50240         0.79210
F           1.70730         2.50420         1.04800
F          -0.27400         2.48110         1.96070
F           0.07800         3.62990         0.14620
H           2.31230        -0.43230        -0.02820
C           3.37540        -0.59580        -0.18530
C           4.18300         0.38040        -0.81900
C           3.99190        -1.75380         0.22700
C           5.56750         0.20570        -1.03430
C           5.37730        -1.95910         0.02070
H           3.42390        -2.53390         0.72050
C           6.16120        -0.96590        -0.61520
H           6.14850         0.98050        -1.52220
H           7.22110        -1.11060        -0.77720
N           3.62390         1.55160        -1.23930
N           3.16570         2.51130        -1.57910
O           5.85410        -3.11960         0.46180
O          -7.44350        -1.49450        -0.93170
C          -7.67160        -1.23030        -2.32700
H          -6.98930        -1.81740        -2.94860
H          -8.69840        -1.53940        -2.51310
H          -7.56080        -0.16340        -2.54170
C           7.24780        -3.43860         0.30820
H           7.87170        -2.71970         0.84750
H           7.36540        -4.42820         0.74580
H           7.52460        -3.46710        -0.74980

$nbo bndidx $end

nprocshared=7
