%chk=x2-4-NO2-Ph-N2-BF4-v2_RB3LYP-aug-cc-pVDZ-Opt.chk
%mem=500MW
%nproc=7
#p opt=(maxcycles=777) freq rb3lyp/aug-cc-pVDZ pop=(Bonding,AllOrbitals,mk,no,nboread)

x2-4-NO2-Ph-N2-BF4-v2_RB3LYP-aug-cc-pVDZ

1 1
 C         3.240066890577     -0.085518281882      0.264981166504
 C         4.064122802992      0.359635937136      1.312449317103
 C         5.421763701011      0.708112560219      1.174501348425
 C         5.977898253329      0.602863919429     -0.093780943164
 C         5.169961358688      0.158431899371     -1.144810859568
 C         3.825946728310     -0.185092383342     -0.993491215629
 H         2.192380323674     -0.319444108418      0.444304672164
 H         6.007197959282      1.047887390105      2.026650133281
 H         7.018735523629      0.857107275088     -0.279622750999
 H         3.250591729444     -0.516383822341     -1.854526183306
 N         3.513920806674      0.451680156798      2.586615195529
 N         3.108343238626      0.516166963063      3.600219583271
 H        -2.044223918915      0.809002973847     -0.202696397295
 C        -3.106643211862      0.566258098156     -0.221050848703
 C        -3.686982599232     -0.250739910501      0.763603792041
 C        -3.960053937508      1.061604910195     -1.204448407176
 C        -5.052718308692     -0.591739184670      0.821616539376
 C        -5.314843464853      0.732500063919     -1.158141095795
 H        -3.584006736137      1.702230185263     -1.998703361052
 C        -5.879360004402     -0.078924640890     -0.169164408843
 H        -5.441669531440     -1.229843210351      1.612713638793
 N        -2.865881863273     -0.783450901889      1.754677891036
 N        -2.231182567365     -1.232183284076      2.546685975830
 N         5.781242960385      0.047713490612     -2.504280823770
 O         5.053872634946     -0.343698944661     -3.404985766928
 O         6.959718742683      0.356566849344     -2.604490679991
 F         1.218899244886      1.574337524827      1.875280724589
 F        -1.086108085082      1.268938089836      2.018898649791
 F         0.290999243404     -0.500099968109      1.448350399507
 F        -0.037789448000      1.230705449982     -0.041553097295
 B         0.094133016687      0.918722467236      1.329584297906
 H        -6.944661264298     -0.296185450819     -0.188412383663
 N        -6.214562670884      1.274734933401     -2.221445338270
 O        -7.396775761137      0.971249599238     -2.149100415619
 O        -5.696031786145      1.975953354883     -3.077228348079

$nbo bndidx $end

nprocshared=7
