%chk=x2-Ph-N2-OTf-v1_RB3LYP-aug-cc-pVDZ-Opt.chk
%mem=500MW
%nproc=7
#p opt=(maxcycles=777) freq rb3lyp/aug-cc-pVDZ pop=(Bonding,AllOrbitals,mk,no,nboread)

x2-Ph-N2-OTf-v1_RB3LYP-aug-cc-pVDZ

1 1
C           4.15490        -0.37280         1.02930
C           4.38610        -0.28930        -0.35460
C           5.64360        -0.48720        -0.95970
C           6.70890        -0.78730        -0.12570
C           6.51260        -0.87950         1.25980
C           5.25140        -0.67330         1.82880
H           3.15770        -0.18760         1.41690
H           5.76140        -0.40800        -2.03450
H           7.69300        -0.94830        -0.55130
H           7.35650        -1.11300         1.90110
H           5.11940        -0.74390         2.90280
N           3.32850         0.00260        -1.19710
N           2.50910         0.22000        -1.92130
S           0.09310         0.23350         0.32010
O           0.28600        -0.61700        -0.89220
O          -0.95090        -0.27580         1.23840
O           1.35950         0.68100         0.94020
C          -0.65030         1.79200        -0.36700
F          -1.83180         1.49470        -0.95370
F           0.15420         2.33360        -1.28770
F          -0.87590         2.68390         0.59810
H          -2.96030         0.14710         1.35870
C          -3.92110        -0.14700         0.94980
C          -3.97070        -1.06520        -0.11240
C          -5.13830         0.32780         1.42370
C          -5.16540        -1.52040        -0.70690
C          -6.34140        -0.10030         0.85300
H          -5.14600         1.03690         2.24400
C          -6.35620        -1.01910        -0.20600
H          -5.14220        -2.23200        -1.52450
H          -7.28140         0.28360         1.23640
H          -7.29660        -1.34270        -0.63790
N          -2.79340        -1.57900        -0.62840
N          -1.90310        -2.04560        -1.11150

$nbo bndidx $end

nprocshared=7
