%mem=400MW
%nproc=7
#p Temperature=298.15 opt=(maxcycles=1024) SCF=(maxcycles=1024) freq UB3LYP/aug-cc-pVDZ

2-NO2-Ph+-UB3LYP-aug-cc-pVDZ-Triplet

1 3
C          -1.37590        -0.64980        -6.21080
C          -0.63510         0.53120        -6.29080
C          -0.96650         1.56870        -5.41130
C          -2.00310         1.44990        -4.46440
C          -2.71950         0.26610        -4.39680
C          -2.40260        -0.78200        -5.27390
H          -1.12410        -1.47360        -6.87650
H           0.20980         0.67300        -6.96900
H          -2.96740        -1.71170        -5.21290
H          -3.51450         0.17710        -3.66040
N          -2.34160         2.55960        -3.55490
O          -1.72950         3.61310        -3.71990
O          -3.20390         2.36110        -2.71490


nprocshared=7
