%mem=400MW
%nproc=7
#p Temperature=298.15 opt=(maxcycles=1024) SCF=(maxcycles=1024) freq UB3LYP/aug-cc-pVDZ

2-NO2-Ph+-RB3LYP-aug-cc-pVDZ-Singlet

1  1
C           2.28422         0.00631        -0.01375
C           1.54642         1.11911        -0.01081
C           0.07230         1.08068         0.00719
C          -0.48567        -0.38409         0.01587
C           0.37349        -1.59041         0.01765
C           1.69683        -1.34441        -0.00117
H           3.37168         0.07394        -0.01946
H           1.99446         2.11267        -0.01845
H           2.38557        -2.19126        -0.01327
H          -0.08458        -2.57662         0.03386
N          -1.73910        -0.43253        -0.00245
O          -0.66897         2.02643         0.01420
O          -2.88340        -0.49070        -0.02113


nprocshared=7
