%mem=400MW
%nproc=7
#p Temperature=298.15 opt=(maxcycles=1024) SCF=(maxcycles=1024) freq UB3LYP/aug-cc-pVDZ

3-NO2-Ph+-UB3LYP-aug-cc-pVDZ-Triplet

1  3
  C   -2.148711   0.886783   0.011360
  C   -2.475770   -0.121170   -0.066453
  C   -1.624763   -1.378781   0.047313
  C   -0.289987   -1.457710   0.036046
  C   0.136406   -0.084253   -0.022959
  C   -0.557512   1.009385   0.107552
  H   -2.475993   1.815659   0.008311
  H   -3.568148   -0.148765   0.024567
  H   0.180164   -2.078262   0.138740
  H   -0.189450   2.100058   0.180009
  N   1.561703   -0.127682   -0.087468
  O   2.234312   1.351716   -0.057259
  O   2.317353   -0.985581   0.085562

nprocshared=7
