%mem=400MW
%nproc=7
#p Temperature=298.15 opt=(maxcycles=1024) SCF=(maxcycles=1024) freq UB3LYP/aug-cc-pVDZ

4-Br-Ph+-UB3LYP-aug-cc-pVDZ-Singlet

1 1
C          -4.36620         0.17040        -0.67750
C          -4.47760        -0.93040         0.19200
C          -5.67290        -1.66150         0.34570
C          -6.77460        -1.27880        -0.40280
C          -6.68360        -0.18730        -1.28030
C          -5.48980         0.53000        -1.41280
H          -3.42160         0.71340        -0.72980
H          -5.71950        -2.49910         1.02860
H          -7.70380        -1.82460        -0.30570
H          -5.43220         1.37500        -2.08660
Br         -8.21440         0.32600        -2.30080


nprocshared=7
