%mem=400MW
%nproc=7
#p Temperature=298.15 opt=(maxcycles=1024) SCF=(maxcycles=1024) freq UB3LYP/aug-cc-pVDZ

4-CH3O-Ph+-UB3LYP-aug-cc-pVDZ-Singlet

1  1
  C   -0.373363   1.292345   0.064258
  C   -1.666001   1.254866   0.191371
  C   -2.207876   0.148354   0.204188
  C   -1.731562   -1.238160   0.109056
  C   -0.278483   -1.169268   -0.209348
  C   0.362131   0.089135   -0.431132
  H   0.042889   2.006622   -0.448910
  H   -2.152204   2.184881   0.118458
  H   -2.167064   -2.043674   0.345838
  H   0.357548   -2.249542   -0.057932
  O   1.707803   -0.074945   -0.438238
  C   2.840138   0.003837   0.382019
  H   3.772472   0.027246   -0.048791
  H   2.708214   -1.084468   1.309814
  H   2.562906   0.843115   1.080972

nprocshared=7
