%mem=400MW
%nproc=7
#p Temperature=298.15 opt=(maxcycles=1024) SCF=(maxcycles=1024) freq UB3LYP/aug-cc-pVDZ

4-CH3O-Ph+-RB3LYP-aug-cc-pVDZ-Singlet

1  1
  C   -0.398627   1.277608   -0.179920
  C   -1.876710   1.172278   0.197758
  C   -1.926463   0.141299   0.367016
  C   -1.540789   -1.120852   -0.072358
  C   -0.376576   -1.218903   -0.223935
  C   0.584097   0.114787   -0.398236
  H   0.319468   2.025476   -0.111139
  H   -2.328836   2.068681   0.359310
  H   -2.297095   -2.331980   0.241963
  H   0.135701   -2.078610   -0.355037
  O   1.677760   -0.148190   -0.697832
  C   2.534049   -0.063021   0.497162
  H   3.665869   -0.083324   -0.144358
  H   2.512377   -0.769911   1.289118
  H   2.523975   0.949625   1.251050

nprocshared=7
