%mem=400MW
%nproc=7
#p Temperature=298.15 opt=(maxcycles=1024) SCF=(maxcycles=1024) freq UB3LYP/aug-cc-pVDZ

4-HOOC-Ph+-UB3LYP-aug-cc-pVDZ-Singlet

1 1
C          -4.53700         0.10130        -0.66120
C          -4.64840        -0.99950         0.20830
C          -5.84370        -1.73060         0.36200
C          -6.94540        -1.34790        -0.38650
C          -6.85440        -0.25640        -1.26400
C          -5.66060         0.46090        -1.39650
H          -3.59240         0.64430        -0.71350
H          -5.89030        -2.56820         1.04490
H          -7.87460        -1.89370        -0.28940
H          -5.60300         1.30590        -2.07030
C          -8.08860         0.15750        -2.08680
O          -9.21780        -0.32970        -2.12030
O          -7.84180         1.22940        -2.88140
H          -8.63480         1.46900        -3.38820


nprocshared=7
