%mem=400MW
%nproc=7
#p Temperature=298.15 opt=(maxcycles=1024) SCF=(maxcycles=1024) freq UB3LYP/aug-cc-pVDZ

Ph-N2+-UB3LYP-aug-cc-pVDZ-Triplet

1  3
  C   -1.313592   -1.430378   -0.015436
  C   -0.177859   -1.347504   -0.150187
  C   0.670976   -0.194957   0.043380
  C   0.056065   1.265522   -0.089570
  C   -1.505932   1.087108   -0.009407
  C   -2.172200   -0.198335   0.129685
  H   -1.900953   -2.223910   -0.185022
  H   0.390685   -2.326570   -0.005244
  N   1.834584   -0.042492   0.146106
  N   3.151031   0.104159   0.152237
  H   -3.389966   -0.101227   0.016662
  H   -2.195678   2.341727   0.186751
  H   0.504505   2.201387   0.131253

nprocshared=7
