%chk=2-HOOC-C6H3-IRC.chk
%mem=500MW
%nproc=7
# rb3lyp/aug-cc-pVDZ irc=(calcfc,maxcycle=1000,maxpoints=10000,stepsize=1) scf=(xqc,maxcycle=1000) nosymm

2-HOOC-C6H3

0 1
C          -2.69341         0.24412         0.00000
C          -1.70128         1.26413         0.00000
C          -0.46882         0.74864         0.00000
C           0.02748        -0.56927         0.00000
C          -1.00097        -1.51898         0.00000
C          -2.34718        -1.11115         0.00000
H          -3.75394         0.51219         0.00000
H          -0.72889        -2.57305         0.00000
N           0.63372         1.92525        -0.00000
N           1.07015         2.94645        -0.00000
H          -3.12741        -1.87530         0.00000
C           1.43501        -1.04079         0.00000
O           1.77624        -2.20365        -0.00001
O           2.34331        -0.02474         0.00001
H           3.22172        -0.43882         0.00001


nprocshared=7
