%chk=2-NO2-C6H3-IRC.chk
%mem=500MW
%nproc=7
# rb3lyp/aug-cc-pVDZ irc=(calcfc,maxcycle=1000,maxpoints=10000,stepsize=1) scf=(xqc,maxcycle=1000) nosymm

2-NO2-C6H3

0 1
C           2.60063         0.57394         0.00000
C           1.48479         1.45699         0.00000
C           0.32594         0.80902         0.00000
C           0.03255        -0.56095         0.00000
C           1.14913        -1.39356         0.00000
C           2.43173        -0.81507         0.00000
H           3.61783         0.97505         0.00000
N          -0.96428         1.80834        -0.00000
N          -1.51618         2.77092        -0.00000
H           3.30220        -1.47400         0.00000
H           1.00393        -2.47121         0.00000
N          -1.31227        -1.13451         0.00000
O          -2.26073        -0.34213         0.00001
O          -1.42970        -2.35352        -0.00000


nprocshared=7
