%chk=4-CH3O-C6H3-IRC.chk
%mem=500MW
%nproc=7
# rb3lyp/aug-cc-pVDZ irc=(calcfc,maxcycle=1000,maxpoints=10000,stepsize=1) scf=(xqc,maxcycle=1000) nosymm

4-CH3O-C6H3

0 1
C          -0.72275        -1.02368        -0.00000
C           0.65705        -1.21928        -0.00000
C           1.37773        -0.03174        -0.00000
C           1.02640         1.25587        -0.00000
C          -0.37078         1.41992        -0.00000
C          -1.23184         0.30133         0.00000
H          -1.38332        -1.88612        -0.00000
H           1.10856        -2.21229        -0.00000
H          -0.83907         2.40786         0.00000
N           2.99287        -0.26376        -0.00000
N           4.07923        -0.01566         0.00001
O          -2.56596         0.58144         0.00000
C          -3.50076        -0.49310         0.00000
H          -4.49028        -0.02583         0.00001
H          -3.39162        -1.11757         0.90003
H          -3.39163        -1.11756        -0.90002


nprocshared=7
