%chk=4-HOOC-C6H3-IRC.chk
%mem=500MW
%nproc=7
# rb3lyp/aug-cc-pVDZ irc=(calcfc,maxcycle=1000,maxpoints=10000,stepsize=1) scf=(xqc,maxcycle=1000) nosymm

4-HOOC-C6H3

0 1
C           0.20822        -1.24339         0.00000
C          -1.21416        -1.23568         0.00000
C          -1.67294         0.02603         0.00000
C          -1.06415         1.28451         0.00000
C           0.32240         1.21588         0.00000
C           0.95598        -0.05380         0.00000
H           0.76025        -2.18486         0.00000
H          -1.61022         2.22805         0.00000
H           0.91774         2.12527         0.00000
N          -3.25767         0.07993         0.00000
N          -4.33115        -0.21206        -0.00000
C           2.44727        -0.15825         0.00000
O           3.07431        -1.19607         0.00000
O           3.06784         1.05513        -0.00000
H           4.02105         0.87215        -0.00000


nprocshared=7
