%chk=4-NO2-C6H3-IRC.chk
%mem=500MW
%nproc=7
# rb3lyp/aug-cc-pVDZ irc=(calcfc,maxcycle=1000,maxpoints=10000,stepsize=1) scf=(xqc,maxcycle=1000) nosymm

4-NO2-C6H3

0 1
C          -0.27011        -1.23292        -0.00005
C           1.15237        -1.23090        -0.00005
C           1.62562         0.02348         0.00000
C           1.03645         1.29122         0.00005
C          -0.35074         1.24303         0.00005
C          -0.97049        -0.02442         0.00000
H          -0.83857        -2.16259        -0.00009
H           1.59361         2.22801         0.00009
H          -0.95624         2.14461         0.00008
N          -2.45824        -0.05162         0.00000
O          -3.00979        -1.14659         0.00012
O          -3.04905         1.02651        -0.00012
N           3.21864         0.05995         0.00001
N           4.28721        -0.24637        -0.00002


nprocshared=7
