%chk=x2-4-NO2-Ph-N2-BF4-v2-RB3LYP-6-31G_dp.chk
%nprocs=7
%mem=200MW
# opt=(maxcycles=1000,cartesian) freq freq rb3lyp/6-31G(d,p)

x2-4-NO2-Ph-N2-BF4-v2-RB3LYP-6-31G_dp

1 1
C           3.49400        -0.16940        -0.36970
C           3.75900         1.20440        -0.23890
C           5.02370         1.74950         0.05220
C           6.07610         0.86390         0.22430
C           5.82600        -0.50260         0.09240
C           4.57080        -1.03130        -0.20020
H           2.49030        -0.52510        -0.58030
H           5.16460         2.82050         0.14160
H           7.07680         1.20720         0.45500
H           4.44940        -2.10410        -0.28480
N           2.72090         2.10240        -0.43140
N           1.91830         2.85030        -0.61230
H          -2.39770         1.36330        -0.38540
C          -3.39790         0.96330        -0.24990
C          -3.64200        -0.41620        -0.38820
C          -4.48700         1.76360         0.07680
C          -4.89740        -1.01970        -0.21660
C          -5.75580         1.20750         0.26420
H          -4.34400         2.83160         0.19410
C          -5.93580        -0.16860         0.11400
H          -5.06690        -2.08400        -0.32740
N          -2.59400        -1.25150        -0.73790
N          -1.78010        -1.94280        -1.04770
N           6.96580        -1.44500         0.27480
O           6.71970        -2.63740         0.14780
O           8.05390        -0.94710         0.53520
F           1.14300         0.68750         1.06630
F          -1.03290        -0.09600         0.99510
F           0.44050        -0.62140        -0.68460
F          -0.33970         1.52950        -0.47030
B           0.05270         0.37250         0.25310
H          -6.91280        -0.57970         0.26000
N          -6.93210         2.04890         0.62260
O          -8.01600         1.50040         0.77270
O          -6.76710         3.25470         0.75260


nprocshared=7
