%chk=2-HOOC-4-Br-C6H2-TS.chk
%mem=500MW
%nproc=7
# rb3lyp/aug-cc-pVDZ opt=(ts,noeigen,calcfc) freq=noraman

2-HOOC-4-Br-C6H2

0 1
C          -1.38897        -1.49136        -1.05400
C           0.00852        -1.25701        -1.09682
C           0.31713         0.02563        -0.89999
C          -0.45290         1.17680        -0.66183
C          -1.82261         0.89504        -0.62860
C          -2.26413        -0.42553        -0.82401
H          -1.80019        -2.49266        -1.19762
H          -2.52282         1.70740        -0.45134
N           1.93314         0.24469        -0.95828
N           3.01593         0.02308        -1.05913
Br         -4.15892        -0.75185        -0.76743
C          -0.01328         2.58261        -0.45206
O          -0.75974         3.51417        -0.25111
O           1.33818         2.73370        -0.50490
H           1.51976         3.67638        -0.35678


nprocshared=7
