%chk=2-NO2-C6H3-TS.chk
%mem=500MW
%nproc=7
# rb3lyp/aug-cc-pVDZ opt=(ts,noeigen,calcfc) freq=noraman

2-NO2-C6H3

0 1
C          -1.89577         0.12282        -1.06730
C          -0.47432         0.10821        -0.99508
C          -0.01047         0.89409        -0.03033
C          -0.67035         1.70929         0.89844
C          -2.05949         1.69694         0.79614
C          -2.66402         0.89861        -0.19230
H          -2.41240        -0.48088        -1.81850
N           1.61851         0.88855         0.06582
N           2.66380         0.61850        -0.18957
H          -3.75318         0.89393        -0.26656
H          -2.64444         2.30453         1.48251
N          -0.01526         2.52943         1.91605
O           1.21949         2.49641         1.95490
O          -0.71320         3.19797         2.66820


nprocshared=7
