%chk=3-NO2-C6H3-N2-v1-TS.chk
%mem=500MW
%nproc=7
# rb3lyp/aug-cc-pVDZ opt=(ts,noeigen,calcfc) freq=noraman

3-NO2-C6H3-N2-v1

0 1
C          -1.88230         0.12509        -1.09288
C          -0.56055        -0.22001        -0.68941
C          -0.12835         0.62069         0.26760
C          -0.67985         1.71654         0.92282
C          -1.96796         1.98464         0.47052
C          -2.57581         1.19975        -0.53144
H          -2.38548        -0.46027        -1.86664
H          -0.19918         2.31353         1.69468
N           1.35696         0.27472         0.75729
N           2.35545        -0.19685         0.87988
H          -3.58614         1.45377        -0.84833
N          -2.69746         3.11654         1.06228
O          -3.83382         3.33968         0.65463
O          -2.12682         3.77037         1.93431


nprocshared=7
