%chk=4-HOOC-C6H3-TS.chk
%mem=500MW
%nproc=7
# rb3lyp/aug-cc-pVDZ opt=(ts,noeigen,calcfc) freq=noraman

4-HOOC-C6H3

0 1
C          -1.41853        -1.46834        -1.05883
C          -0.01468        -1.23897        -1.10411
C           0.24680         0.06034        -0.88447
C          -0.54065         1.18723        -0.63121
C          -1.89878         0.90187        -0.59897
C          -2.33428        -0.43145        -0.81392
H          -1.82307        -2.46985        -1.21543
H          -0.14219         2.18964        -0.47396
H          -2.62182         1.69125        -0.41093
N           1.80857         0.36489        -0.92594
N           2.91349         0.27331        -1.01093
C          -3.79046        -0.76843        -0.78470
O          -4.25465        -1.87486        -0.95953
O          -4.58433         0.31265        -0.54259
H          -5.49781        -0.01538        -0.54766


nprocshared=7
