%chk=Ph-N2-OTf-N2-Ph.chk
%nprocs=7
%mem=200MW
# opt freq rb3lyp/6-31G(d,p)

1a-R5-P1+-RB3LYP-6-31G_dp

1 1
C          -1.93230         0.08680        -1.08920
C          -0.54910         0.01550        -0.97270
C           0.04280         0.83030         0.00700
C          -0.64710         1.70110         0.86750
C          -2.02890         1.75070         0.72590
C          -2.63870         0.94750        -0.24310
H          -2.45540        -0.51400        -1.82260
H          -3.70310         0.99400        -0.34250
H          -2.61650         2.39290         1.34810
H          -0.13470         2.29570         1.59470
N           0.25370        -0.86760        -1.83090
N          -0.30190        -1.55280        -2.69090
C           0.45020        -2.45310        -3.57670
C           0.92940        -1.98680        -4.80120
C           0.68490        -3.77340        -3.19310
C           1.64250        -2.84090        -5.64210
H           0.74360        -0.94600        -5.10370
C           1.39900        -4.62770        -4.03370
H           0.30740        -4.14110        -2.22790
C           1.87770        -4.16170        -5.25810
H           2.01970        -2.47360        -6.60760
H           1.58430        -5.66850        -3.73080
H           2.44010        -4.83490        -5.92130
C           1.57470         0.76340         0.15000
C           2.15430        -0.15900         1.02160
C           2.38270         1.62490        -0.59200
C           3.54160        -0.21940         1.15170
H           1.51690        -0.83750         1.60700
C           3.77050         1.56390        -0.46270
C           4.35000         0.64210         0.40900
H           3.99850        -0.94600         1.83920
H           4.40740         2.24300        -1.04810
H           5.44390         0.59420         0.51170


nprocshared=7
