%chk=3-NO2-C6H3-N2-v1-IRC.chk
%mem=500MW
%nproc=7
# rb3lyp/aug-cc-pVDZ irc=(calcfc,maxcycle=1000,maxpoints=10000,stepsize=1) scf=(xqc,maxcycle=1000) nosymm

3-NO2-C6H3-N2-v1

0 1
C           0.46811         2.12789         0.00000
C           1.68120         1.38308        -0.00000
C           1.42926         0.06489        -0.00000
C           0.26981        -0.70239        -0.00000
C          -0.86914         0.09744         0.00000
C          -0.78254         1.50513         0.00000
H           0.49712         3.22037         0.00000
H           0.21708        -1.78888        -0.00000
N           2.76802        -0.81581        -0.00000
N           3.84123        -1.10504         0.00000
H          -1.70603         2.08210         0.00001
N          -2.18620        -0.55786         0.00000
O          -3.18186         0.16048        -0.00000
O          -2.21186        -1.78784         0.00000


nprocshared=7
