%chk=4-Br-C6H3-IRC.chk
%mem=500MW
%nproc=7
# rb3lyp/aug-cc-pVDZ irc=(calcfc,maxcycle=1000,maxpoints=10000,stepsize=1) scf=(xqc,maxcycle=1000) nosymm

4-Br-C6H3

0 1
C          -1.22806        -0.09873         0.00000
C          -1.25147        -1.51534         0.00000
C          -0.01961        -2.03254         0.00000
C           1.26101        -1.48224         0.00000
C           1.24721        -0.09077         0.00000
C           0.00000         0.57156         0.00000
H          -2.15037         0.48578         0.00000
H           2.18392        -2.06332         0.00000
H           2.17534         0.47618         0.00000
N          -0.02300        -3.64898         0.00000
N          -0.39383        -4.69821         0.00000
Br          0.01870         2.49772         0.00000


nprocshared=7
