%chk=C6H4-IRC.chk
%mem=500MW
%nproc=7
# rb3lyp/aug-cc-pVDZ irc=(calcfc,maxcycle=1000,maxpoints=10000,stepsize=1) scf=(xqc,maxcycle=1000) nosymm

C6H4

0 1
C           1.39246        -1.30360         0.00000
C          -0.02920        -1.25179        -0.00000
C          -0.45151         0.02145        -0.00000
C           0.19291         1.26084        -0.00000
C           1.57987         1.14523         0.00000
C           2.16966        -0.13926         0.00000
H           1.90481        -2.27024         0.00000
N          -2.04415         0.12623        -0.00000
N          -3.12246        -0.15066         0.00000
H           3.25988        -0.21566         0.00000
H           2.20252         2.03962         0.00000
H          -0.32608         2.21996        -0.00000


nprocshared=7
